1670908475.074742s 1 https://dandiarchive.s3.amazonaws.com/zarr/1a215bad-3ca7-4b43-af6e-1dddbaed7e2d/0/0/0/4/13/86?versionId=dkdjj.MT3D9yvlVi4DHzYr6TkEKxvUZp
1670908475.090623s 1 https://api.dandiarchive.org/api/zarr/1a215bad-3ca7-4b43-af6e-1dddbaed7e2d.zarr/0/0/0/4/13/86
